7
methylamine-opt.log	Energy:  -60128.7695165
N          0.74960        0.00000       -0.12497
C         -0.70384        0.00000        0.01748
H         -1.07854       -0.00016        1.05465
H         -1.11299       -0.88111       -0.48649
H         -1.11294        0.88126       -0.48625
H          1.14017       -0.81208        0.34396
H          1.14017        0.81206        0.34401
