13
DiMethylPhosphate0H-opt.log	Energy: -453100.9555796
P         -0.00003       -0.61218        0.00004
O         -0.95000        0.47824        0.83405
O          0.94997        0.47826       -0.83409
O         -0.83147       -1.28712       -1.03697
O          0.83162       -1.28698        1.03697
C         -1.90902        1.16430        0.07214
C          1.90894        1.16432       -0.07217
H         -1.45162        1.68544       -0.78142
H         -2.38473        1.90898        0.72472
H         -2.67188        0.48134       -0.32228
H          2.67244        0.48162        0.32142
H          1.45171        1.68467        0.78192
H          2.38399        1.90976       -0.72451
