10
MonoMethylPhosphate1H-opt.log	Energy: -428444.6216075
H         -0.66122        1.92166       -0.55490
O         -0.54733        1.11391       -1.06815
P         -0.49590       -0.07640        0.10273
O          0.94553       -0.78224       -0.31017
O         -1.53980       -1.10628       -0.15691
O         -0.33772        0.66601        1.40367
C          2.10758       -0.05309       -0.01578
H          2.07827        0.95442       -0.45698
H          2.95845       -0.59668       -0.44847
H          2.25203        0.05402        1.06657
